
#======================================================================
# CRYSTAL DATA
#----------------------------------------------------------------------
data_VESTA_phase_2

_chemical_name_common                  'C7 H22 I7 N3 Pb2'
_cell_length_a                         8.8412(11)
_cell_length_b                         8.8436(4)
_cell_length_c                         33.6045(5)
_cell_angle_alpha                      90.000000
_cell_angle_beta                       90.000000
_cell_angle_gamma                      90.000000
_cell_volume                           2627.469896
_space_group_name_H-M_alt              'I c'
_space_group_IT_number                 9

loop_
_space_group_symop_operation_xyz
   'x, y, z'
   'x, -y, z+1/2'
   'x+1/2, y+1/2, z+1/2'
   'x+1/2, -y+1/2, z'

loop_
   _atom_site_label
   _atom_site_occupancy
   _atom_site_fract_x
   _atom_site_fract_y
   _atom_site_fract_z
   _atom_site_adp_type
   _atom_site_U_iso_or_equiv
   _atom_site_type_symbol
   Pb1        1.0    -0.0033(2)   -0.00016(11)  0.12849(5)  Uani  0.033067 Pb
   Pb2        1.0    -0.00338(18)  0.00016(11)  0.32190(5)  Uani  0.032200 Pb
   I1         1.0    -0.0040(7)    0.00005(9)   0.22471(16) Uani  0.055300 I
   I2         1.0    -0.0033(5)    0.0002(4)    0.03654(9)  Uani  0.140333 I
   I3         1.0    -0.0037(4)   -0.0001(4)    0.41405(8)  Uani  0.132433 I
   I4         1.0     0.2982(4)   -0.1973(2)    0.32041(11) Uani  0.058467 I
   I5         1.0     0.2979(4)    0.1987(2)    0.12934(11) Uani  0.059600 I
   I6         1.0     0.1941(4)   -0.6970(2)    0.32041(11) Uani  0.057733 I
   I7         1.0     0.1941(4)    0.6986(2)    0.12936(11) Uani  0.059067 I
   N1         1.0     0.431(3)     0.047(4)     0.2387(9)   Uiso  0.195000 N
   N2         1.0     0.536(2)     0.038(2)     0.0483(5)   Uiso  0.172000 N
   N3         1.0     0.538(3)     0.034(3)    -0.1064(4)   Uiso  0.172000 N
   C1         1.0     0.564(3)    -0.057(4)     0.2353(13)  Uiso  0.195000 C
   C2         1.0     0.4951(16)   0.0098(16)  -0.0347(4)   Uiso  0.149000 C
   C3         1.0     0.643(2)     0.072(3)    -0.0205(5)   Uiso  0.172000 C
   C4         1.0     0.432(2)    -0.114(2)    -0.0089(5)   Uiso  0.172000 C
   C5         1.0     0.418(2)    -0.071(3)     0.0342(5)   Uiso  0.172000 C
   C6         1.0     0.450(3)    -0.048(3)    -0.0749(5)   Uiso  0.172000 C
   C7         1.0     0.6749(17)   0.042(3)     0.0227(5)   Uiso  0.172000 C
   H1c1       1.0     0.620344    -0.032827     0.211751    Uiso  0.234400 H
   H2c1       1.0     0.627785    -0.044653     0.258257    Uiso  0.234400 H
   H3c1       1.0     0.529522    -0.159642     0.233922    Uiso  0.234400 H
   H1c2       1.0     0.460072     0.112582    -0.034426    Uiso  0.179000 H
   H1c3       1.0     0.646750     0.178858    -0.025429    Uiso  0.205800 H
   H2c3       1.0     0.723838     0.031147    -0.036349    Uiso  0.205800 H
   H1c4       1.0     0.493919    -0.202226    -0.011350    Uiso  0.205800 H
   H2c4       1.0     0.334981    -0.143934    -0.018949    Uiso  0.205800 H
   H1c5       1.0     0.319154    -0.029583     0.038941    Uiso  0.205800 H
   H2c5       1.0     0.421036    -0.161009     0.050204    Uiso  0.205800 H
   H1c6       1.0     0.471647    -0.154509    -0.076512    Uiso  0.205800 H
   H2c6       1.0     0.344197    -0.031626    -0.078995    Uiso  0.205800 H
   H1c7       1.0     0.729296    -0.051001     0.025333    Uiso  0.205800 H
   H2c7       1.0     0.743230     0.117863     0.032640    Uiso  0.205800 H
   H1n1       1.0     0.418155     0.094942     0.216280    Uiso  0.234400 H
   H2n1       1.0     0.349836    -0.005505     0.243948    Uiso  0.234400 H
   H3n1       1.0     0.446239     0.111978     0.257665    Uiso  0.234400 H
   H1n2       1.0     0.497211     0.128070     0.049831    Uiso  0.205800 H
   H2n2       1.0     0.561526     0.015863     0.072602    Uiso  0.205800 H
   H1n3       1.0     0.511885     0.000763    -0.129747    Uiso  0.205800 H
   H2n3       1.0     0.519791     0.130255    -0.104812    Uiso  0.205800 H
   H3n3       1.0     0.634603     0.018108    -0.102837    Uiso  0.205800 H

loop_
   _atom_site_aniso_label
   _atom_site_aniso_U_11
   _atom_site_aniso_U_22
   _atom_site_aniso_U_33
   _atom_site_aniso_U_12
   _atom_site_aniso_U_13
   _atom_site_aniso_U_23
   Pb1	 0.03880  0.02780  0.03260  0.00080 -0.00030  0.00010
   Pb2	 0.02620  0.04010  0.03030  0.00090 -0.00040  0.00010
   I1	 0.07080  0.07160  0.02350 -0.00770  0.00010 -0.00110
   I2	 0.23300  0.15700  0.03100  0.02500 -0.00300 -0.00410
   I3	 0.15300  0.22500  0.01930  0.02600  0.00000 -0.00380
   I4	 0.04380  0.04860  0.08300  0.01900 -0.00210 -0.00260
   I5	 0.04680  0.04300  0.08900 -0.02090  0.00600 -0.00160
   I6	 0.04200  0.04860  0.08260 -0.01870  0.00220 -0.00710
   I7	 0.04550  0.04270  0.08900  0.02030 -0.00760 -0.00570

#======================================================================